$# LS-DYNA Keyword file created by LS-PrePost(R) V4.7.0 - 18Oct2019(16:38)
$# Created on May-20-2020 (00:44:21)
*KEYWORD
*TITLE
$#                                                                         title
LS-DYNA keyword deck by LS-PrePost
*CONTROL_ALE
$      dct      nadv      meth      afac      bfac      cfac      dfac      efac
$#     dct      nadv      meth      afac      bfac      cfac      dfac      efac
         0         1         1      -1.0       0.0       0.0       0.0       0.0
$    start       end     aafac     vfact      prit       ebc      pref   nsidebc
$#   start       end     aafac     vfact      prit       ebc      pref   nsidebc
       0.01.00000E20       0.0       0.0         0         0       0.0         0
$#    ncpl      nbkt    imascl    checkr    beamin   mmgpref    pdifmx   dtmufac
         1        50         0       0.0       0.0         0       0.0       0.0
$# optimpp    ialedr    bndflx    minmas      
         0         0         01.00000E-5
*CONTROL_BULK_VISCOSITY
$       q1        q2      type                                            unused
$#      q1        q2      type     btype    tstype      
       1.5      0.06        -2         0         0
*CONTROL_CONTACT
$   slsfac    rwnpal    islchk    shlthk    penopt    thkchg     orien    enmass
$#  slsfac    rwpnal    islchk    shlthk    penopt    thkchg     orien    enmass
       0.0       0.0         1         1         1         0         2         0
$   usrstr   usrfric     nsbcs    interm     xpene     ssthk      ecdt   tiedprj
$#  usrstr    usrfrc     nsbcs    interm     xpene     ssthk      ecdt   tiedprj
         0         0         0         0       0.0         0         0         0
$    sfric     dfric       edc       vfc        th     th_sf    pen_sf    unused
$#   sfric     dfric       edc       vfc        th     th_sf    pen_sf      
       0.0       0.0       0.0       0.0       0.0       0.0       0.0
$   ignore    frceng   skiprwg    outseg   spotstp   spotdel   spothin   unused1
$#  ignore    frceng   skiprwg    outseg   spotstp   spotdel   spothin       
         2         1         0         1         0         1       0.5
$     isym    nserod    rwgaps    rwgdth     rwksf      icov    swradf    ithoff
$#    isym    nserod    rwgaps    rwgdth     rwksf      icov    swradf    ithoff
         0         0         1       0.0       0.0         0       0.0         0
$   shledg    pstiff    ithcnt    tdcnof     ftall                       unused2
$#  shledg    pstiff    ithcnt    tdcnof     ftall    unused    shltrw    igactc
         1         0         0         0         1                 0.0         0
*CONTROL_DISCRETE_ELEMENT
$#   ndamp     tdamp      fric     fricr     normk    sheark       cap     mxnsc
       0.8       0.8       0.3       0.0       0.0       0.0         0         0
*CONTROL_ENERGY
$     hgen      rwen    slnten     rylen                                  unused
$#    hgen      rwen    slnten     rylen     irgen     
         2         2         2         2         2
*CONTROL_HOURGLASS
$      ihq        qh                                                     unused1
$#     ihq        qh  
         5       0.1
*CONTROL_OUTPUT
$    npopt    neecho    nrefup    iaccop     opifs    ipnint    ikedit    iflush
$#   npopt    neecho    nrefup    iaccop     opifs    ipnint    ikedit    iflush
         1         0         0         0       0.0         0         0         0
$    iprtf    ierode     tet10    msgmax    ipcurv                        unused
$#   iprtf    ierode   tet10s8    msgmax    ipcurv      gmdt   ip1dblt      eocs
         0         0         2         0         0       0.0         0         0
$#   tolev    newleg    frfreq     minfo    solsig    msgflg    cdetol      
         2         0         1         0         0         0      10.0
$# phschng    demden   icrfile   spc2bnd         -    shlsig   hisnout       
         0         0         0         0         0         0         0
*CONTROL_PARALLEL
$     ncpu    numrhs    consti      para                                  unused
$#    ncpu    numrhs     const      para    
         0         0         1         0
*CONTROL_RIGID
$      lmf      jntf    orthmd     partm    sparse    metalf    plotel     rbsms
$#     lmf      jntf    orthmd     partm    sparse    metalf    plotel     rbsms
         0         0         0         0         0         0         0         0
$#  norbic      
         0
*CONTROL_SHELL
$   wrpang     esort     irnxx    istupd    theory       bwc     miter      proj
$#  wrpang     esort     irnxx    istupd    theory       bwc     miter      proj
      20.0         1        -1         4         2         1         1         1
$  rotascl    intgrd    lamsht    cstyp6    tshell    nfail1    nfail4   psnfail
$# rotascl    intgrd    lamsht    cstyp6    thshel      
       0.0         0         0         0         0
$   pstupd    irquad     cntco                                            unused
$# psstupd   sidt4tu     cntco    itsflg    irquad    w-mode   stretch      icrq
         0         0         2         0         2       0.0       0.0         0
*CONTROL_SOLID
$    esort    fmatrx   niptets    swlocl                                  unused
$#   esort   fmatrix   niptets    swlocl    psfail   t10jtol    icohed    tet13k
         1         0         0         1         0       0.0         0         0
$    pm1     pm2     pm3     pm4     pm5     pm6     pm7     pm8     pm9    pm10
$#   pm1     pm2     pm3     pm4     pm5     pm6     pm7     pm8     pm9    pm10
       0       0       0       0       0       0       0       0       0       0
*CONTROL_SOLUTION
$     soln       nlq     isnan     lcint                                  unused
$#    soln       nlq     isnan     lcint     lcacc     ncdcf     
         0         0         0         0         0         1
*CONTROL_TERMINATION
$   endtim    endcyc     dtmin    endeng    endmas                        unused
$#  endtim    endcyc     dtmin    endeng    endmas     nosol     
      10.0 200000000     0.001       0.0  100000.0         0
*CONTROL_TIMESTEP
$   endtim    endcyc     dtmin    endeng    endmas                        unused
$#  dtinit    tssfac      isdo    tslimt     dt2ms      lctm     erode     ms1st
       0.0       0.9         0       0.0       0.0         0         1         0
$   dt2msf   dt2mslc     imscl                                            unused
$#  dt2msf   dt2mslc     imscl    unused    unused     rmscl    unused      ihdo
       0.0         0         0                           0.0                   0
*DATABASE_BNDOUT
$       dt    binary      lcur     ioopt     dthff     binhf             unused1
$#      dt    binary      lcur     ioopt     
      0.02         3         0         1
*DATABASE_DEFGEO
$       dt    binary      lcur     ioopt     dthff     binhf             unused1
$#      dt    binary      lcur     ioopt     
      0.02         3         0         1
*DATABASE_DEFORC
$       dt    binary      lcur     ioopt     dthff     binhf             unused1
$#      dt    binary      lcur     ioopt     
      0.02         3         0         1
*DATABASE_ELOUT
$       dt    binary      lcur     ioopt     dthff     binhf             unused1
$#      dt    binary      lcur     ioopt   option1   option2   option3   option4
      0.02         3         0         1         0         0         0         0
*DATABASE_GLSTAT
$       dt    binary      lcur     ioopt     dthff     binhf             unused1
$#      dt    binary      lcur     ioopt     
      0.02         3         0         1
*DATABASE_JNTFORC
$       dt    binary      lcur     ioopt     dthff     binhf             unused1
$#      dt    binary      lcur     ioopt     
      0.02         3         0         1
*DATABASE_MATSUM
$       dt    binary      lcur     ioopt     dthff     binhf             unused1
$#      dt    binary      lcur     ioopt     
      0.02         3         0         1
*DATABASE_NODOUT
$       dt    binary      lcur     ioopt     dthff     binhf             unused1
$#      dt    binary      lcur     ioopt   option1   option2       
      0.02         3         0         1       0.0         0
*DATABASE_RBDOUT
$       dt    binary      lcur     ioopt     dthff     binhf             unused1
$#      dt    binary      lcur     ioopt     
      0.02         3         0         1
*DATABASE_RCFORC
$       dt    binary      lcur     ioopt     dthff     binhf             unused1
$#      dt    binary      lcur     ioopt     
      0.02         3         0         1
*DATABASE_SPCFORC
$       dt    binary      lcur     ioopt     dthff     binhf             unused1
$#      dt    binary      lcur     ioopt     
      0.02         3         0         1
*DATABASE_BINARY_D3PLOT
$       dt      lcdt      beam     npltc    psetid                       unused1
$#      dt      lcdt      beam     npltc    psetid      
      0.01         0         0         0         0
$#   ioopt      rate    cutoff    window      type      pset    
         0       0.0       0.0       0.0         0         0
*DATABASE_BINARY_D3PROP
$    ifile     imatl     iwall                                           unused2
$#   ifile     imatl     iwall     
         2         1         0
*DATABASE_BINARY_DEMFOR
$#      dt      lcdt      beam     npltc    psetid      
      0.01         0         0         0         0
*DATABASE_BINARY_INTFOR
$       dt      lcdt      beam     npltc    psetid                        unused
$#      dt      lcdt      beam     npltc    psetid      
       0.1         0         0         0         0
*DATABASE_EXTENT_BINARY
$    neiph     neips    maxint    strflg    sigflg    epsflg    rltflg    engflg
$#   neiph     neips    maxint    strflg    sigflg    epsflg    rltflg    engflg
         0         0         0         0         1         1         1         1
$   cmpflg    ieverp    beamip     dcomp      shge     stssz    n3thdt   ialemat
$#  cmpflg    ieverp    beamip     dcomp      shge     stssz    n3thdt   ialemat
         0         0         0         1         1         1         2         0
$  nintsld   pkp_sen      sclp     hydro     msscl     therm    intout    nodout
$# nintsld   pkp_sen      sclp     hydro     msscl     therm    intout    nodout
         0         0       0.0         0         2         0                    
*DATABASE_FORMAT
$    iform   ibinary                                                      unused
$#   iform   ibinary       
         0         0
*BOUNDARY_PRESCRIBED_MOTION_SET
$      sid       dof       vad      lcid        sf       vid     death     birth
$#    nsid       dof       vad      lcid        sf       vid     death     birth
        14         1         2         2       1.0         0       0.0       0.0
$      sid       dof       vad      lcid        sf       vid     death     birth
$#    nsid       dof       vad      lcid        sf       vid     death     birth
        14         2         2         3       1.0         0       0.0       0.0
$      sid       dof       vad      lcid        sf       vid     death     birth
$#    nsid       dof       vad      lcid        sf       vid     death     birth
        14         3         2         4       1.0         0       0.0       0.0
*BOUNDARY_SPC_SET
$     nsid       cid      dofx      dofy      dofz     dofrx     dofry     dofrz
$#    nsid       cid      dofx      dofy      dofz     dofrx     dofry     dofrz
        11         0         1         1         1         1         1         1
*SET_NODE_LIST
$#     sid       da1       da2       da3       da4    solver      
        11       0.0       0.0       0.0       0.0MECH
$#    nid1      nid2      nid3      nid4      nid5      nid6      nid7      nid8
         2         4       212       213       214         0         0         0
*BOUNDARY_SPC_SET
$     nsid       cid      dofx      dofy      dofz     dofrx     dofry     dofrz
$#    nsid       cid      dofx      dofy      dofz     dofrx     dofry     dofrz
        12         0         1         1         1         1         1         1
*SET_NODE_LIST
$#     sid       da1       da2       da3       da4    solver      
        12       0.0       0.0       0.0       0.0MECH
$#    nid1      nid2      nid3      nid4      nid5      nid6      nid7      nid8
      1494      1495      1496      1497      1543      1608      2224      2225
      2226      2227      2228      2229      2230      2231      2232      2233
      2234      2235      2236      2237      2238      2239      2240      2241
      2242      2243      2244      2245      2246      2247      2248      2249
      2250      2251      2252      2253      2254      2255      2256      2257
      2258      2259      2260      2261      2262      2263      2264      2265
      2266      2267      2268      2269      2270      2271      2272      2273
      2274      2275      2276      2277      2278      2279      2280      2281
      2282      2283      2284      2285      2286      2287      2288      2289
      2290      2291      2292      2293      2294      2295      2296      2297
      2298      2299      2300      2301      2302      2303      2304         0
*BOUNDARY_SPC_SET
$     nsid       cid      dofx      dofy      dofz     dofrx     dofry     dofrz
$#    nsid       cid      dofx      dofy      dofz     dofrx     dofry     dofrz
        13         0         1         1         1         1         1         1
*SET_NODE_LIST
$#     sid       da1       da2       da3       da4    solver      
        13       0.0       0.0       0.0       0.0MECH
$#    nid1      nid2      nid3      nid4      nid5      nid6      nid7      nid8
      1367      1368      1369      1370      1371      1372      1373      1374
      1375      1376      1377      1378      1379      1380      1381      1382
      1383      1384      1385      1386      1387      1388      1389      1390
      1391      1392      1393      1394      1395      1396      1397      1398
      1399      1400      1401      1402      1403      1404      1405      1406
      1407      1408      1409      1410      1411      1412      1413      1414
      1415      1416      1417      1418      1419      1420      1421      1422
      1423      1424      1425      1426      1427      1428      1429      1430
      1431      1432      1433      1434      1435      1436      1437      1438
      1439      1440      1441      1442      1443      1444      1445      1446
      1447      1448      1449      1450      1451      1152      1153      1154
      1155      1156      1157      1158      1159      1160      1161      1162
      1163      1164      1165      1166      1167      1168      1169      1170
      1171      1172      1173      1174      1175      1176      1177      1178
      1179      1180      1181      1182      1183      1184      1185      1186
      1187      1188      1189      1190      1191      1192      1193      1194
      1195      1196      1282      1283      1284      1285      1286      1287
      1288      1289      1290      1291      1292      1293      1294      1295
      1296      1297      1298      1299      1300      1301      1302      1303
      1304      1305      1306      1307      1308      1309      1310      1311
      1312      1313      1314      1315      1316      1317      1318      1319
      1320      1321         0         0         0         0         0         0
*LOAD_BODY_Y
$#    lcid        sf    lciddr        xc        yc        zc       cid   
         5    9806.0         0       0.0       0.0       0.0         0
*CONTACT_AUTOMATIC_SURFACE_TO_SURFACE_ID
$       ID                                                               heading
$#     cid                                                                 title
        99                                                                      
$     ssid      msid     sstyp     mstyp    sboxid    mboxid       spr       mpr
$#    ssid      msid     sstyp     mstyp    sboxid    mboxid       spr       mpr
         1         2         0         0         0         0         1         1
$       fs        fd        dc        vc       vdc    penchk        bt        dt
$#      fs        fd        dc        vc       vdc    penchk        bt        dt
       0.0       0.0       0.0       0.0      10.0         0       0.0       0.0
$      sfs       sfm       sst       mst      sfst      sfmt       fsf       vsf
$#     sfs       sfm       sst       mst      sfst      sfmt       fsf       vsf
       0.0       0.0       0.0       0.0       0.0       0.0       0.0       0.0
$     soft   softscl    lcidab    maxpar     sbopt     depth     bsort    frcfrq
$#    soft    sofscl    lcidab    maxpar     sbopt     depth     bsort    frcfrq
         2       0.0         0       0.0       3.0         5         0         0
$   penmax    tkhopt    shlthk     snlog      isym     i2d3d    sldthk    sldstf
$#  penmax    thkopt    shlthk     snlog      isym     i2d3d    sldthk    sldstf
       0.0         0         0         0         0         0       0.0       0.0
*SET_SEGMENT
$#     sid       da1       da2       da3       da4    solver      
         1       0.0       0.0       0.0       0.0MECH
$#      n1        n2        n3        n4        a1        a2        a3        a4
      1476      1366      1457      1461       0.0       0.0       0.0       0.0
      1366      1351      1458      1457       0.0       0.0       0.0       0.0
      1351      1336      1459      1458       0.0       0.0       0.0       0.0
      1459      1336      1477      1460       0.0       0.0       0.0       0.0
      1475      1365      1366      1476       0.0       0.0       0.0       0.0
      1365      1350      1351      1366       0.0       0.0       0.0       0.0
      1350      1335      1336      1351       0.0       0.0       0.0       0.0
      1336      1335      1478      1477       0.0       0.0       0.0       0.0
      1474      1364      1365      1475       0.0       0.0       0.0       0.0
      1364      1349      1350      1365       0.0       0.0       0.0       0.0
      1349      1334      1335      1350       0.0       0.0       0.0       0.0
      1335      1334      1479      1478       0.0       0.0       0.0       0.0
      1473      1363      1364      1474       0.0       0.0       0.0       0.0
      1363      1348      1349      1364       0.0       0.0       0.0       0.0
      1348      1333      1334      1349       0.0       0.0       0.0       0.0
      1334      1333      1480      1479       0.0       0.0       0.0       0.0
      1472      1362      1363      1473       0.0       0.0       0.0       0.0
      1362      1347      1348      1363       0.0       0.0       0.0       0.0
      1347      1332      1333      1348       0.0       0.0       0.0       0.0
      1333      1332      1481      1480       0.0       0.0       0.0       0.0
$ ... 44 like lines cut
*SET_SEGMENT
$#     sid       da1       da2       da3       da4    solver      
         2       0.0       0.0       0.0       0.0MECH
$#      n1        n2        n3        n4        a1        a2        a3        a4
       283         5       284         3       0.0       0.0       0.0       0.0
       282         8         5       283       0.0       0.0       0.0       0.0
       281        11         8       282       0.0       0.0       0.0       0.0
       280        14        11       281       0.0       0.0       0.0       0.0
       279        17        14       280       0.0       0.0       0.0       0.0
       278        20        17       279       0.0       0.0       0.0       0.0
       277        23        20       278       0.0       0.0       0.0       0.0
       276        26        23       277       0.0       0.0       0.0       0.0
       275        29        26       276       0.0       0.0       0.0       0.0
       274        32        29       275       0.0       0.0       0.0       0.0
       273        35        32       274       0.0       0.0       0.0       0.0
       272        38        35       273       0.0       0.0       0.0       0.0
       271        41        38       272       0.0       0.0       0.0       0.0
       270        44        41       271       0.0       0.0       0.0       0.0
       269        47        44       270       0.0       0.0       0.0       0.0
       268        50        47       269       0.0       0.0       0.0       0.0
       267        53        50       268       0.0       0.0       0.0       0.0
       266        56        53       267       0.0       0.0       0.0       0.0
       265        59        56       266       0.0       0.0       0.0       0.0
       264        62        59       265       0.0       0.0       0.0       0.0
$ ... 260 like lines cut
*CONTACT_AUTOMATIC_SURFACE_TO_SURFACE_ID
$       ID                                                               heading
$#     cid                                                                 title
       102                                                                      
$     ssid      msid     sstyp     mstyp    sboxid    mboxid       spr       mpr
$#    ssid      msid     sstyp     mstyp    sboxid    mboxid       spr       mpr
         3         4         0         0         0         0         1         1
$       fs        fd        dc        vc       vdc    penchk        bt        dt
$#      fs        fd        dc        vc       vdc    penchk        bt        dt
       0.0       0.0       0.0       0.0      10.0         0       0.0       0.0
$      sfs       sfm       sst       mst      sfst      sfmt       fsf       vsf
$#     sfs       sfm       sst       mst      sfst      sfmt       fsf       vsf
       0.0       0.0       0.0       0.0       0.0       0.0       0.0       0.0
$     soft   softscl    lcidab    maxpar     sbopt     depth     bsort    frcfrq
$#    soft    sofscl    lcidab    maxpar     sbopt     depth     bsort    frcfrq
         2       0.0         0       0.0       3.0         5         0         0
$   penmax    tkhopt    shlthk     snlog      isym     i2d3d    sldthk    sldstf
$#  penmax    thkopt    shlthk     snlog      isym     i2d3d    sldthk    sldstf
       0.0         0         0         0         0         0       0.0       0.0
*SET_SEGMENT
$#     sid       da1       da2       da3       da4    solver      
         3       0.0       0.0       0.0       0.0MECH
$#      n1        n2        n3        n4        a1        a2        a3        a4
      1197      1271      1272      1273       0.0       0.0       0.0       0.0
      1212      1197      1273      1274       0.0       0.0       0.0       0.0
      1227      1212      1274      1275       0.0       0.0       0.0       0.0
      1227      1275      1276      1242       0.0       0.0       0.0       0.0
      1198      1270      1271      1197       0.0       0.0       0.0       0.0
      1213      1198      1197      1212       0.0       0.0       0.0       0.0
      1228      1213      1212      1227       0.0       0.0       0.0       0.0
      1228      1227      1242      1243       0.0       0.0       0.0       0.0
      1199      1269      1270      1198       0.0       0.0       0.0       0.0
      1214      1199      1198      1213       0.0       0.0       0.0       0.0
      1229      1214      1213      1228       0.0       0.0       0.0       0.0
      1229      1228      1243      1244       0.0       0.0       0.0       0.0
      1200      1268      1269      1199       0.0       0.0       0.0       0.0
      1215      1200      1199      1214       0.0       0.0       0.0       0.0
      1230      1215      1214      1229       0.0       0.0       0.0       0.0
      1230      1229      1244      1245       0.0       0.0       0.0       0.0
      1201      1267      1268      1200       0.0       0.0       0.0       0.0
      1216      1201      1200      1215       0.0       0.0       0.0       0.0
      1231      1216      1215      1230       0.0       0.0       0.0       0.0
      1231      1230      1245      1246       0.0       0.0       0.0       0.0
$ ... 44 like lines cut
*SET_SEGMENT
$#     sid       da1       da2       da3       da4    solver      
         4       0.0       0.0       0.0       0.0MECH
$#      n1        n2        n3        n4        a1        a2        a3        a4
         3       284         5       283       0.0       0.0       0.0       0.0
       283         5         8       282       0.0       0.0       0.0       0.0
       282         8        11       281       0.0       0.0       0.0       0.0
       281        11        14       280       0.0       0.0       0.0       0.0
       280        14        17       279       0.0       0.0       0.0       0.0
       279        17        20       278       0.0       0.0       0.0       0.0
       278        20        23       277       0.0       0.0       0.0       0.0
       277        23        26       276       0.0       0.0       0.0       0.0
       276        26        29       275       0.0       0.0       0.0       0.0
       275        29        32       274       0.0       0.0       0.0       0.0
       274        32        35       273       0.0       0.0       0.0       0.0
       273        35        38       272       0.0       0.0       0.0       0.0
       272        38        41       271       0.0       0.0       0.0       0.0
       271        41        44       270       0.0       0.0       0.0       0.0
       270        44        47       269       0.0       0.0       0.0       0.0
       269        47        50       268       0.0       0.0       0.0       0.0
       268        50        53       267       0.0       0.0       0.0       0.0
       267        53        56       266       0.0       0.0       0.0       0.0
       266        56        59       265       0.0       0.0       0.0       0.0
       265        59        62       264       0.0       0.0       0.0       0.0
$ ... 260 like lines cut
*CONTACT_AUTOMATIC_SINGLE_SURFACE_ID
$       ID                                                               heading
$#     cid                                                                 title
       123                                                                      
$     ssid      msid     sstyp     mstyp    sboxid    mboxid       spr       mpr
$#    ssid      msid     sstyp     mstyp    sboxid    mboxid       spr       mpr
         0         0         5         0         0         0         0         0
$       fs        fd        dc        vc       vdc    penchk        bt        dt
$#      fs        fd        dc        vc       vdc    penchk        bt        dt
       0.0       0.0       0.0       0.0      10.0         0       0.0       0.0
$      sfs       sfm       sst       mst      sfst      sfmt       fsf       vsf
$#     sfs       sfm       sst       mst      sfst      sfmt       fsf       vsf
       0.0       0.0       0.0       0.0       0.0       0.0       0.0       0.0
$     soft   softscl    lcidab    maxpar     sbopt     depth     bsort    frcfrq
$#    soft    sofscl    lcidab    maxpar     sbopt     depth     bsort    frcfrq
         2       0.0         0       0.0       3.0         5         0         0
$   penmax    tkhopt    shlthk     snlog      isym     i2d3d    sldthk    sldstf
$#  penmax    thkopt    shlthk     snlog      isym     i2d3d    sldthk    sldstf
       0.0         0         0         0         0         0       0.0       0.0
*PART
$                                                                       partname
$#                                                                         title
Geom\Surface
$       ID     secid       mid     eosid      hgid      grav     adopt      tmid
$#     pid     secid       mid     eosid      hgid      grav    adpopt      tmid
         1         1         1         0         0         0         0         0
*SECTION_SHELL
$       ID    elform      shrf       nip     propt        qr     icomp     setyp
$#   secid    elform      shrf       nip     propt   qr/irid     icomp     setyp
         1         2  0.833333         3       1.0         0         0         1
$       t1        t2        t3        t4      nloc     marea              unused
$#      t1        t2        t3        t4      nloc     marea      idof    edgset
       1.0       1.0       1.0       1.0       0.0       0.0       0.0         0
*MAT_ELASTIC
$       ID        ro         E        pr        da        db         k   unused1
$#     mid        ro         e        pr        da        db  not used        
         17.85000E-9  200000.0       0.3       0.0       0.0       0.0
*PART
$                                                                       partname
$#                                                                         title
Geom\Solid
$       ID     secid       mid     eosid      hgid      grav     adopt      tmid
$#     pid     secid       mid     eosid      hgid      grav    adpopt      tmid
         2         2         2         0         0         0         0         0
*SECTION_SOLID
$       ID    elform       aet                                           unused1
$#   secid    elform       aet   
         2         1         0
*MAT_ELASTIC
$       ID        ro         E        pr        da        db         k   unused1
$#     mid        ro         e        pr        da        db  not used        
         27.85000E-9  200000.0       0.3       0.0       0.0       0.0
*PART
$                                                                       partname
$#                                                                         title
Geom\Solid
$       ID     secid       mid     eosid      hgid      grav     adopt      tmid
$#     pid     secid       mid     eosid      hgid      grav    adpopt      tmid
         3         3         3         0         0         0         0         0
*SECTION_SOLID
$       ID    elform       aet                                           unused1
$#   secid    elform       aet   
         3         1         0
*MAT_ELASTIC
$       ID        ro         E        pr        da        db         k   unused1
$#     mid        ro         e        pr        da        db  not used        
         37.85000E-9  200000.0       0.3       0.0       0.0       0.0
*PART
$                                                                       partname
$#                                                                         title
Geom\Surface
$       ID     secid       mid     eosid      hgid      grav     adopt      tmid
$#     pid     secid       mid     eosid      hgid      grav    adpopt      tmid
         4         4         4         0         0         0         0         0
*SECTION_SHELL
$       ID    elform      shrf       nip     propt        qr     icomp     setyp
$#   secid    elform      shrf       nip     propt   qr/irid     icomp     setyp
         4         2  0.833333         3       1.0         0         0         1
$       t1        t2        t3        t4      nloc     marea              unused
$#      t1        t2        t3        t4      nloc     marea      idof    edgset
       0.1       0.1       0.1       0.1       0.0       0.0       0.0         0
*MAT_ELASTIC
$       ID        ro         E        pr        da        db         k   unused1
$#     mid        ro         e        pr        da        db  not used        
         47.85000E-9  200000.0       0.3       0.0       0.0       0.0
*PART
$#                                                                         title
Disc_Sphere_7
$#     pid     secid       mid     eosid      hgid      grav    adpopt      tmid
         7         5         5         0         0         0         0         0
*SECTION_SOLID_TITLE
DEs
$       ID    elform       aet                                           unused1
$#   secid    elform       aet   
         5         1         0
*MAT_RIGID_DISCRETE_TITLE
Rigid Spheres
$#     mid        ro         e        pr  
         53.70000E-9   10000.0       0.3
*PART
$#                                                                         title
Disc_Sphere_8
$#     pid     secid       mid     eosid      hgid      grav    adpopt      tmid
         8         5         5         0         0         0         0         0
*DEFINE_BOX_TITLE
DE Box
$#   boxid       xmn       xmx       ymn       ymx       zmn       zmx   
         1     -80.0      80.0       0.0     180.0      -6.0       6.0
*DEFINE_DE_TO_SURFACE_COUPLING
$#   slave    master     stype     mtype     
         7         1         3         1
$#   frics     fricd      damp     bsort      lcvx      lcvy      lcvz     wearc
      0.01      0.01       0.8       100         0         0         0       1.5
$#      w1        w2        w3        w4        w5        w6        w7        w8
*DEFINE_DE_TO_SURFACE_COUPLING
$#   slave    master     stype     mtype     
         7         4         3         1
$#   frics     fricd      damp     bsort      lcvx      lcvy      lcvz     wearc
      0.01      0.01       0.8       100         0         0         0       1.5
$#      w1        w2        w3        w4        w5        w6        w7        w8
*DEFINE_DE_TO_SURFACE_COUPLING
$#   slave    master     stype     mtype     
         8         1         3         1
$#   frics     fricd      damp     bsort      lcvx      lcvy      lcvz     wearc
      0.01      0.01       0.8       100         0         0         0       1.5
$#      w1        w2        w3        w4        w5        w6        w7        w8
*DEFINE_DE_TO_SURFACE_COUPLING
$#   slave    master     stype     mtype     
         8         4         3         1
$#   frics     fricd      damp     bsort      lcvx      lcvy      lcvz     wearc
      0.01      0.01       0.8       100         0         0         0       1.5
$#      w1        w2        w3        w4        w5        w6        w7        w8
*DEFINE_DE_ACTIVE_REGION
$#      id      type        xm        ym        zm  
         1         1       1.0       1.0       1.0
*DEFINE_COORDINATE_SYSTEM
$       ID        xO        yO        zO        xL        yL        zL   unused1
$#     cid        xo        yo        zo        xl        yl        zl      cidl
        25       0.0       0.0       0.0       1.0       0.0       0.0         0
$       xP        yP        zP                                           unused2
$#      xp        yp        zp  
       0.0       1.0       0.0
*DEFINE_CURVE
$       ID      sidr       sfa       sfo      offa      offo    dattyp   unused1
$#    lcid      sidr       sfa       sfo      offa      offo    dattyp     lcint
         2         0       0.0       0.0       0.0       0.0         0         0
$                 a1                  o1                                 unused1
$#                a1                  o1  
                 0.0                 0.0
$                 a1                  o1                                 unused1
                10.0                 0.0
$                 a1                  o1                                 unused1
               100.0                 0.0
*DEFINE_CURVE
$       ID      sidr       sfa       sfo      offa      offo    dattyp   unused1
$#    lcid      sidr       sfa       sfo      offa      offo    dattyp     lcint
         3         0       0.0       0.0       0.0       0.0         0         0
$#                a1                  o1  
                 0.0                 0.0
                 2.0                 0.0
                10.0               -45.0
*DEFINE_CURVE
$       ID      sidr       sfa       sfo      offa      offo    dattyp   unused1
$#    lcid      sidr       sfa       sfo      offa      offo    dattyp     lcint
         4         0       0.0       0.0       0.0       0.0         0         0
$                 a1                  o1                                 unused1
$#                a1                  o1  
                 0.0                 0.0
$                 a1                  o1                                 unused1
                10.0                 0.0
$                 a1                  o1                                 unused1
               100.0                 0.0
*DEFINE_CURVE_TITLE
gravity
$       ID      sidr       sfa       sfo      offa      offo    dattyp   unused1
$#    lcid      sidr       sfa       sfo      offa      offo    dattyp     lcint
         5         0       0.0       0.0       0.0       0.0         0         0
$#                a1                  o1  
                 0.0                 1.0
                10.0                 1.0
               100.0                 1.0
*SET_NODE_LIST
$#     sid       da1       da2       da3       da4    solver      
        14       0.0       0.0       0.0       0.0MECH
$#    nid1      nid2      nid3      nid4      nid5      nid6      nid7      nid8
         1         3       284       285       286         0         0         0
*SET_SEGMENT
$#     sid       da1       da2       da3       da4    solver      
         5       0.0       0.0       0.0       0.0MECH
$#      n1        n2        n3        n4        a1        a2        a3        a4
      1476      1366      1457      1461       0.0       0.0       0.0       0.0
      1366      1351      1458      1457       0.0       0.0       0.0       0.0
      1351      1336      1459      1458       0.0       0.0       0.0       0.0
      1459      1336      1477      1460       0.0       0.0       0.0       0.0
      1475      1365      1366      1476       0.0       0.0       0.0       0.0
      1365      1350      1351      1366       0.0       0.0       0.0       0.0
      1350      1335      1336      1351       0.0       0.0       0.0       0.0
      1336      1335      1478      1477       0.0       0.0       0.0       0.0
      1474      1364      1365      1475       0.0       0.0       0.0       0.0
      1364      1349      1350      1365       0.0       0.0       0.0       0.0
      1349      1334      1335      1350       0.0       0.0       0.0       0.0
      1335      1334      1479      1478       0.0       0.0       0.0       0.0
      1473      1363      1364      1474       0.0       0.0       0.0       0.0
      1363      1348      1349      1364       0.0       0.0       0.0       0.0
      1348      1333      1334      1349       0.0       0.0       0.0       0.0
      1334      1333      1480      1479       0.0       0.0       0.0       0.0
      1472      1362      1363      1473       0.0       0.0       0.0       0.0
      1362      1347      1348      1363       0.0       0.0       0.0       0.0
      1347      1332      1333      1348       0.0       0.0       0.0       0.0
      1333      1332      1481      1480       0.0       0.0       0.0       0.0
$ ... 44 like lines cut
*SET_SEGMENT
$#     sid       da1       da2       da3       da4    solver      
         6       0.0       0.0       0.0       0.0MECH
$#      n1        n2        n3        n4        a1        a2        a3        a4
      1197      1271      1272      1273       0.0       0.0       0.0       0.0
      1212      1197      1273      1274       0.0       0.0       0.0       0.0
      1227      1212      1274      1275       0.0       0.0       0.0       0.0
      1227      1275      1276      1242       0.0       0.0       0.0       0.0
      1198      1270      1271      1197       0.0       0.0       0.0       0.0
      1213      1198      1197      1212       0.0       0.0       0.0       0.0
      1228      1213      1212      1227       0.0       0.0       0.0       0.0
      1228      1227      1242      1243       0.0       0.0       0.0       0.0
      1199      1269      1270      1198       0.0       0.0       0.0       0.0
      1214      1199      1198      1213       0.0       0.0       0.0       0.0
      1229      1214      1213      1228       0.0       0.0       0.0       0.0
      1229      1228      1243      1244       0.0       0.0       0.0       0.0
      1200      1268      1269      1199       0.0       0.0       0.0       0.0
      1215      1200      1199      1214       0.0       0.0       0.0       0.0
      1230      1215      1214      1229       0.0       0.0       0.0       0.0
      1230      1229      1244      1245       0.0       0.0       0.0       0.0
      1201      1267      1268      1200       0.0       0.0       0.0       0.0
      1216      1201      1200      1215       0.0       0.0       0.0       0.0
      1231      1216      1215      1230       0.0       0.0       0.0       0.0
      1231      1230      1245      1246       0.0       0.0       0.0       0.0
$ ... 44 like lines cut
*SET_SEGMENT
$#     sid       da1       da2       da3       da4    solver      
         7       0.0       0.0       0.0       0.0MECH
$#      n1        n2        n3        n4        a1        a2        a3        a4
      1476      1366      1457      1461       0.0       0.0       0.0       0.0
      1366      1351      1458      1457       0.0       0.0       0.0       0.0
      1351      1336      1459      1458       0.0       0.0       0.0       0.0
      1459      1336      1477      1460       0.0       0.0       0.0       0.0
      1475      1365      1366      1476       0.0       0.0       0.0       0.0
      1365      1350      1351      1366       0.0       0.0       0.0       0.0
      1350      1335      1336      1351       0.0       0.0       0.0       0.0
      1336      1335      1478      1477       0.0       0.0       0.0       0.0
      1474      1364      1365      1475       0.0       0.0       0.0       0.0
      1364      1349      1350      1365       0.0       0.0       0.0       0.0
      1349      1334      1335      1350       0.0       0.0       0.0       0.0
      1335      1334      1479      1478       0.0       0.0       0.0       0.0
      1473      1363      1364      1474       0.0       0.0       0.0       0.0
      1363      1348      1349      1364       0.0       0.0       0.0       0.0
      1348      1333      1334      1349       0.0       0.0       0.0       0.0
      1334      1333      1480      1479       0.0       0.0       0.0       0.0
      1472      1362      1363      1473       0.0       0.0       0.0       0.0
      1362      1347      1348      1363       0.0       0.0       0.0       0.0
      1347      1332      1333      1348       0.0       0.0       0.0       0.0
      1333      1332      1481      1480       0.0       0.0       0.0       0.0
$ ... 44 like lines cut
*SET_SEGMENT
$#     sid       da1       da2       da3       da4    solver      
         8       0.0       0.0       0.0       0.0MECH
$#      n1        n2        n3        n4        a1        a2        a3        a4
       283         5       284         3       0.0       0.0       0.0       0.0
       282         8         5       283       0.0       0.0       0.0       0.0
       281        11         8       282       0.0       0.0       0.0       0.0
       280        14        11       281       0.0       0.0       0.0       0.0
       279        17        14       280       0.0       0.0       0.0       0.0
       278        20        17       279       0.0       0.0       0.0       0.0
       277        23        20       278       0.0       0.0       0.0       0.0
       276        26        23       277       0.0       0.0       0.0       0.0
       275        29        26       276       0.0       0.0       0.0       0.0
       274        32        29       275       0.0       0.0       0.0       0.0
       273        35        32       274       0.0       0.0       0.0       0.0
       272        38        35       273       0.0       0.0       0.0       0.0
       271        41        38       272       0.0       0.0       0.0       0.0
       270        44        41       271       0.0       0.0       0.0       0.0
       269        47        44       270       0.0       0.0       0.0       0.0
       268        50        47       269       0.0       0.0       0.0       0.0
       267        53        50       268       0.0       0.0       0.0       0.0
       266        56        53       267       0.0       0.0       0.0       0.0
       265        59        56       266       0.0       0.0       0.0       0.0
       264        62        59       265       0.0       0.0       0.0       0.0
$ ... 260 like lines cut
*SET_SEGMENT
$#     sid       da1       da2       da3       da4    solver      
         9       0.0       0.0       0.0       0.0MECH
$#      n1        n2        n3        n4        a1        a2        a3        a4
      1197      1271      1272      1273       0.0       0.0       0.0       0.0
      1212      1197      1273      1274       0.0       0.0       0.0       0.0
      1227      1212      1274      1275       0.0       0.0       0.0       0.0
      1227      1275      1276      1242       0.0       0.0       0.0       0.0
      1198      1270      1271      1197       0.0       0.0       0.0       0.0
      1213      1198      1197      1212       0.0       0.0       0.0       0.0
      1228      1213      1212      1227       0.0       0.0       0.0       0.0
      1228      1227      1242      1243       0.0       0.0       0.0       0.0
      1199      1269      1270      1198       0.0       0.0       0.0       0.0
      1214      1199      1198      1213       0.0       0.0       0.0       0.0
      1229      1214      1213      1228       0.0       0.0       0.0       0.0
      1229      1228      1243      1244       0.0       0.0       0.0       0.0
      1200      1268      1269      1199       0.0       0.0       0.0       0.0
      1215      1200      1199      1214       0.0       0.0       0.0       0.0
      1230      1215      1214      1229       0.0       0.0       0.0       0.0
      1230      1229      1244      1245       0.0       0.0       0.0       0.0
      1201      1267      1268      1200       0.0       0.0       0.0       0.0
      1216      1201      1200      1215       0.0       0.0       0.0       0.0
      1231      1216      1215      1230       0.0       0.0       0.0       0.0
      1231      1230      1245      1246       0.0       0.0       0.0       0.0
$ ... 44 like lines cut
*SET_SEGMENT
$#     sid       da1       da2       da3       da4    solver      
        10       0.0       0.0       0.0       0.0MECH
$#      n1        n2        n3        n4        a1        a2        a3        a4
       283         5       284         3       0.0       0.0       0.0       0.0
       282         8         5       283       0.0       0.0       0.0       0.0
       281        11         8       282       0.0       0.0       0.0       0.0
       280        14        11       281       0.0       0.0       0.0       0.0
       279        17        14       280       0.0       0.0       0.0       0.0
       278        20        17       279       0.0       0.0       0.0       0.0
       277        23        20       278       0.0       0.0       0.0       0.0
       276        26        23       277       0.0       0.0       0.0       0.0
       275        29        26       276       0.0       0.0       0.0       0.0
       274        32        29       275       0.0       0.0       0.0       0.0
       273        35        32       274       0.0       0.0       0.0       0.0
       272        38        35       273       0.0       0.0       0.0       0.0
       271        41        38       272       0.0       0.0       0.0       0.0
       270        44        41       271       0.0       0.0       0.0       0.0
       269        47        44       270       0.0       0.0       0.0       0.0
       268        50        47       269       0.0       0.0       0.0       0.0
       267        53        50       268       0.0       0.0       0.0       0.0
       266        56        53       267       0.0       0.0       0.0       0.0
       265        59        56       266       0.0       0.0       0.0       0.0
       264        62        59       265       0.0       0.0       0.0       0.0
$ ... 260 like lines cut
*ELEMENT_SOLID (ten nodes format)
$#   eid     pid   
    1059       3
$#    n1      n2      n3      n4      n5      n6      n7      n8      n9     n10
    1196    1306    1291    1287    1197    1271    1272    1273       0       0
    1060       3
    1181    1196    1287    1288    1212    1197    1273    1274       0       0
    1061       3
    1166    1181    1288    1289    1227    1212    1274    1275       0       0
    1062       3
    1166    1289    1290    1307    1227    1275    1276    1242       0       0
    1063       3
    1195    1305    1306    1196    1198    1270    1271    1197       0       0
    1064       3
    1180    1195    1196    1181    1213    1198    1197    1212       0       0
    1065       3
    1165    1180    1181    1166    1228    1213    1212    1227       0       0
    1066       3
    1165    1166    1307    1308    1228    1227    1242    1243       0       0
    1067       3
    1194    1304    1305    1195    1199    1269    1270    1198       0       0
    1068       3
    1179    1194    1195    1180    1214    1199    1198    1213       0       0
    1069       3
$ ... 235 like lines cut
*ELEMENT_SHELL
$#   eid     pid      n1      n2      n3      n4      n5      n6      n7      n8
       1       4     283       5     284       3       0       0       0       0
       2       4     282       8       5     283       0       0       0       0
       3       4     281      11       8     282       0       0       0       0
       4       4     280      14      11     281       0       0       0       0
       5       4     279      17      14     280       0       0       0       0
       6       4     278      20      17     279       0       0       0       0
       7       4     277      23      20     278       0       0       0       0
       8       4     276      26      23     277       0       0       0       0
       9       4     275      29      26     276       0       0       0       0
      10       4     274      32      29     275       0       0       0       0
      11       4     273      35      32     274       0       0       0       0
      12       4     272      38      35     273       0       0       0       0
      13       4     271      41      38     272       0       0       0       0
      14       4     270      44      41     271       0       0       0       0
      15       4     269      47      44     270       0       0       0       0
      16       4     268      50      47     269       0       0       0       0
      17       4     267      53      50     268       0       0       0       0
      18       4     266      56      53     267       0       0       0       0
      19       4     265      59      56     266       0       0       0       0
      20       4     264      62      59     265       0       0       0       0
$ ... 1636 like lines cut
*ELEMENT_DISCRETE_SPHERE_VOLUME
$#     nid       pid    volume   inertia     radii     
      4241         7  34.13747  55.29932    2.0124
      4242         7  31.54875  48.48841  1.960189
      4243         7  32.79887  51.73278  1.985745
      4244         7  34.95715  57.52999  2.028379
      4245         7  36.85065  62.81685   2.06436
      4246         7   33.4844  53.54741  1.999484
      4247         7  31.58236  48.57453  1.960884
      4248         7  32.92758  52.07156  1.988339
      4249         7  35.30003  58.47353  2.034989
      4250         7  34.32793  55.81448  2.016135
      4251         7  37.97089  66.03165   2.08507
      4252         7  34.22358    55.532   2.01409
      4253         7  33.54731  53.71518  2.000736
      4254         7  37.49008    64.644  2.076232
      4255         7  32.21053  50.19542    1.9738
      4256         7   29.5462  43.46806  1.917804
      4257         7  36.03339  60.51217  2.048985
      4258         7  35.86748  60.04853  2.045836
      4259         7  30.78347  46.54397  1.944209
      4260         7  28.82599  41.71651  1.902094
$ ... 2135 like lines cut
*NODE
$#   nid               x               y               z      tc      rc  
       1             0.0           140.1            -4.0       0       0
       2             0.0             0.1            -4.0       0       0
       3             0.0           140.1             4.0       0       0
       4             0.0             0.1             4.0       0       0
       5             0.0           138.1             2.0       0       0
       6             0.0           138.1             0.0       0       0
       7             0.0           138.1            -2.0       0       0
       8             0.0           136.1             2.0       0       0
       9             0.0           136.1             0.0       0       0
      10             0.0           136.1            -2.0       0       0
      11             0.0           134.1             2.0       0       0
      12             0.0           134.1             0.0       0       0
      13             0.0           134.1            -2.0       0       0
      14             0.0           132.1             2.0       0       0
      15             0.0           132.1             0.0       0       0
      16             0.0           132.1            -2.0       0       0
      17             0.0           130.1             2.0       0       0
      18             0.0           130.1             0.0       0       0
      19             0.0           130.1            -2.0       0       0
      20             0.0           128.1             2.0       0       0
$ ... 4237 like lines cut
*END
